58R
     RDKit          3D

 37 41  0  0  0  0  0  0  0  0999 V2000
   13.4760    7.7840   12.5450 C   0  0  0  0  0  0  0  0  0  0  0  0
   13.7350    9.1350   12.4360 C   0  0  0  0  0  0  0  0  0  0  0  0
   12.6890    9.9450   12.0100 C   0  0  0  0  0  0  0  0  0  0  0  0
   11.4490    9.4460   11.7320 N   0  0  0  0  0  0  0  0  0  0  0  0
   12.2690    7.2440   12.3040 N   0  0  0  0  0  0  0  0  0  0  0  0
   19.3390    7.7690   12.4220 F   0  0  0  0  0  0  0  0  0  0  0  0
   18.0620    7.7100   12.1470 C   0  0  0  0  0  0  0  0  0  0  0  0
   17.7150    6.4670   11.8600 F   0  0  0  0  0  0  0  0  0  0  0  0
   17.8350    8.3960   11.0710 F   0  0  0  0  0  0  0  0  0  0  0  0
   17.2850    8.2120   13.3780 C   0  0  0  0  0  0  0  0  0  0  0  0
   15.7990    8.2310   13.0270 C   0  0  0  0  0  0  0  0  0  0  0  0
   14.7930    6.8820   13.0300 S   0  0  0  0  0  0  0  0  0  0  0  0
   15.0680    9.3630   12.6860 C   0  0  0  0  0  0  0  0  0  0  0  0
   11.2700    8.0880   11.9020 C   0  0  0  0  0  0  0  0  0  0  0  0
   12.8550   11.3020   11.9140 N   0  0  0  0  0  0  0  0  0  0  0  0
   11.8030   12.2740   11.5800 C   0  0  0  0  0  0  0  0  0  0  0  0
   11.8940   13.4460   12.5560 C   0  0  0  0  0  0  0  0  0  0  0  0
   10.8870   14.5270   12.2910 C   0  0  0  0  0  0  0  0  0  0  0  0
   11.9830   12.8150   10.2120 C   0  0  0  0  0  0  0  0  0  0  0  0
   10.9260   13.8840    9.9810 C   0  0  0  0  0  0  0  0  0  0  0  0
   11.1110   15.0480   10.9120 N   0  0  0  0  0  0  0  0  0  0  0  0
   10.0820   16.0880   10.5890 C   0  0  0  0  0  0  0  0  0  0  0  0
   10.1890   17.2990   11.4100 C   0  0  0  0  0  0  0  0  0  0  0  0
    9.0050   17.8200   11.9810 C   0  0  0  0  0  0  0  0  0  0  0  0
   11.3960   18.0030   11.5850 C   0  0  0  0  0  0  0  0  0  0  0  0
   11.4180   19.1780   12.3820 C   0  0  0  0  0  0  0  0  0  0  0  0
   10.2400   19.6710   12.8620 C   0  0  0  0  0  0  0  0  0  0  0  0
    9.0820   18.9830   12.6920 C   0  0  0  0  0  0  0  0  0  0  0  0
    8.0890   19.7150   13.3250 C   0  0  0  0  0  0  0  0  0  0  0  0
    8.6810   20.7900   13.8550 C   0  0  0  0  0  0  0  0  0  0  0  0
    8.0900   21.9010   14.6470 C   0  0  0  0  0  0  0  0  0  0  0  0
    7.6670   22.7120   15.2100 N   0  0  0  0  0  0  0  0  0  0  0  0
   10.0090   20.8010   13.6170 N   0  0  0  0  0  0  0  0  0  0  0  0
   11.0460   21.7990   14.0500 C   0  0  0  0  0  0  0  0  0  0  0  0
   11.1700   22.8940   13.0200 C   0  0  0  0  0  0  0  0  0  0  0  0
   10.1690   23.3460   12.4500 O   0  0  0  0  0  0  0  0  0  0  0  0
   12.4150   23.3790   12.8760 N   0  0  0  0  0  0  0  0  0  0  0  0
  1  5  1  0
  1  2  2  0
  1 12  1  0
  2  3  1  0
  2 13  1  0
  3  4  2  0
  3 15  1  0
  4 14  1  0
  5 14  2  0
  6  7  1  0
  7  9  1  0
  7  8  1  0
  7 10  1  0
 10 11  1  0
 11 13  2  0
 11 12  1  0
 15 16  1  0
 16 19  1  0
 16 17  1  0
 17 18  1  0
 18 21  1  0
 19 20  1  0
 20 21  1  0
 21 22  1  0
 22 23  1  0
 23 25  1  0
 23 24  2  0
 24 28  1  0
 25 26  2  0
 26 27  1  0
 27 28  2  0
 27 33  1  0
 28 29  1  0
 29 30  2  0
 30 33  1  0
 30 31  1  0
 31 32  3  0
 33 34  1  0
 34 35  1  0
 35 36  2  0
 35 37  1  0
M  END
