
     RDKit          3D

 15 15  0  0  0  0  0  0  0  0999 V2000
   -4.5813    0.0500   -1.1583 O   0  0  0  0  0  0  0  0  0  0  0  0
   -4.3034   -0.6771    0.0120 C   0  0  0  0  0  0  0  0  0  0  0  0
   -3.1776    0.0400    0.7093 C   0  0  0  0  0  0  0  0  0  0  0  0
   -2.0205    0.0958   -0.1294 N   0  0  0  0  0  0  0  0  0  0  0  0
   -0.9692    0.8078    0.5896 C   0  0  0  0  0  0  0  0  0  0  0  0
    0.1861    0.9700   -0.4127 C   0  0  0  0  0  0  0  0  0  0  0  0
    0.8010   -0.3111   -0.5431 N   0  0  0  0  0  0  0  0  0  0  0  0
   -0.0849   -1.4050   -0.2378 C   0  0  0  0  0  0  0  0  0  0  0  0
   -1.5200   -1.1624   -0.5828 C   0  0  0  0  0  0  0  0  0  0  0  0
    2.0415   -0.3648    0.1564 C   0  0  0  0  0  0  0  0  0  0  0  0
    3.0738    0.4958   -0.5026 C   0  0  0  0  0  0  0  0  0  0  0  0
    4.6318    0.4446    0.3471 S   0  0  0  0  0  0  0  0  0  0  0  0
    5.7143    1.4371   -0.4657 O   0  0  0  0  0  0  0  0  0  0  0  0
    4.5479    0.8979    1.7588 O   0  0  0  0  0  0  0  0  0  0  0  0
    5.2062   -0.9618    0.2726 O   0  0  0  0  0  0  0  0  0  0  0  0
  1  2  1  0
  2  3  1  0
  3  4  1  0
  4  5  1  0
  5  6  1  0
  6  7  1  0
  7  8  1  0
  8  9  1  0
  7 10  1  0
 10 11  1  0
 11 12  1  0
 12 13  1  0
 12 14  2  0
 12 15  2  0
  9  4  1  0
M  END
