1q8t_ligand
     RDKit          3D

 18 19  0  0  0  0  0  0  0  0999 V2000
    7.5670    9.6490    1.6590 O   0  0  0  0  0  0  0  0  0  0  0  0
    7.9850    9.4820    2.8080 C   0  0  0  0  0  0  0  0  0  0  0  0
    9.3900    9.0330    3.1220 C   0  0  0  0  0  0  0  0  0  0  0  0
    9.8020    7.9260    2.1470 C   0  0  0  0  0  0  0  0  0  0  0  0
   11.1770    7.3720    2.5330 C   0  0  0  0  0  0  0  0  0  0  0  0
   12.1910    8.5000    2.3070 C   0  0  0  0  0  0  0  0  0  0  0  0
   11.8850    9.6720    3.2770 C   0  0  0  0  0  0  0  0  0  0  0  0
   10.4100   10.1890    3.1380 C   0  0  0  0  0  0  0  0  0  0  0  0
   13.6350    7.9160    2.3770 C   0  0  0  0  0  0  0  0  0  0  0  0
   14.0090    7.2340    1.0480 C   0  0  0  0  0  0  0  0  0  0  0  0
   14.6510    8.9840    2.6880 N   0  0  0  0  0  0  0  0  0  0  0  0
    7.1750    9.6680    3.9630 N   0  0  0  0  0  0  0  0  0  0  0  0
    5.7350    9.7420    4.0100 C   0  0  0  0  0  0  0  0  0  0  0  0
    5.1650    9.6930    5.2930 C   0  0  0  0  0  0  0  0  0  0  0  0
    3.7700    9.7460    5.3480 C   0  0  0  0  0  0  0  0  0  0  0  0
    3.0100    9.8540    4.2380 N   0  0  0  0  0  0  0  0  0  0  0  0
    3.5410    9.9010    3.0060 C   0  0  0  0  0  0  0  0  0  0  0  0
    4.9180    9.8440    2.8470 C   0  0  0  0  0  0  0  0  0  0  0  0
  1  2  8  0
  2  3  8  0
  2 12  8  0
  3  4  8  0
  3  8  8  0
  4  5  8  0
  5  6  8  0
  6  7  8  0
  6  9  8  0
  7  8  8  0
  9 10  8  0
  9 11  8  0
 12 13  8  0
 13 14  8  0
 13 18  8  0
 14 15  8  0
 15 16  8  0
 16 17  8  0
 17 18  8  0
M  CHG  1  11   1
M  END
