nsp13-x0116_0B
     RDKit          3D

 15 16  0  0  0  0  0  0  0  0999 V2000
    8.2750   35.6380  -65.6310 O   0  0  0  0  0  0  0  0  0  0  0  0
    9.1860   35.5060  -64.8220 C   0  0  0  0  0  0  0  0  0  0  0  0
    9.0850   34.5270  -63.6620 C   0  0  0  0  0  0  0  0  0  0  0  0
    7.7280   34.3780  -63.2540 O   0  0  0  0  0  0  0  0  0  0  0  0
    7.3710   33.4340  -62.3180 C   0  0  0  0  0  0  0  0  0  0  0  0
    8.1250   32.3120  -62.0090 C   0  0  0  0  0  0  0  0  0  0  0  0
    7.6690   31.4300  -61.0420 C   0  0  0  0  0  0  0  0  0  0  0  0
    6.4920   31.6640  -60.3710 C   0  0  0  0  0  0  0  0  0  0  0  0
    5.7360   32.7580  -60.6930 C   0  0  0  0  0  0  0  0  0  0  0  0
    6.1690   33.6520  -61.6590 C   0  0  0  0  0  0  0  0  0  0  0  0
   10.2820   36.2720  -64.9390 N   0  0  0  0  0  0  0  0  0  0  0  0
   10.2400   37.7210  -65.2120 C   0  0  0  0  0  0  0  0  0  0  0  0
   11.7050   38.0930  -65.3730 C   0  0  0  0  0  0  0  0  0  0  0  0
   12.3380   36.8250  -65.8510 C   0  0  0  0  0  0  0  0  0  0  0  0
   11.6720   35.7890  -64.9710 C   0  0  0  0  0  0  0  0  0  0  0  0
  2  1  2  0
  3  2  1  0
  4  3  1  0
  5  4  1  0
  6  5  2  0
  7  6  1  0
  8  7  2  0
  9  8  1  0
 10  9  2  0
 10  5  1  0
 11  2  1  0
 12 11  1  0
 13 12  1  0
 14 13  1  0
 15 11  1  0
 15 14  1  0
M  END
