nsp13-x0176_0A
     RDKit          3D

 13 13  0  0  0  0  0  0  0  0999 V2000
   -1.4540   41.6010  -58.9400 C   0  0  0  0  0  0  0  0  0  0  0  0
   -2.3630   40.1240  -58.7210 S   0  0  0  0  0  0  0  0  0  0  0  0
   -3.0340   39.8360  -59.9470 O   0  0  0  0  0  0  0  0  0  0  0  0
   -3.1390   40.2780  -57.5260 O   0  0  0  0  0  0  0  0  0  0  0  0
   -1.2970   38.9270  -58.4930 N   0  0  0  0  0  0  0  0  0  0  0  0
   -0.1530   38.8750  -59.4030 C   0  0  0  0  0  0  0  0  0  0  0  0
    0.0430   37.4830  -59.9420 C   0  0  0  0  0  0  0  0  0  0  0  0
    1.0650   36.7090  -59.1500 C   0  0  0  0  0  0  0  0  0  0  0  0
    2.2850   36.3810  -59.7050 C   0  0  0  0  0  0  0  0  0  0  0  0
    3.2310   35.6710  -58.9830 C   0  0  0  0  0  0  0  0  0  0  0  0
    2.9560   35.2650  -57.6990 C   0  0  0  0  0  0  0  0  0  0  0  0
    1.7460   35.5850  -57.1330 C   0  0  0  0  0  0  0  0  0  0  0  0
    0.8030   36.3020  -57.8550 C   0  0  0  0  0  0  0  0  0  0  0  0
  2  1  1  0
  3  2  2  0
  4  2  2  0
  5  2  1  0
  6  5  1  0
  7  6  1  0
  8  7  1  0
  9  8  2  0
 10  9  1  0
 11 10  2  0
 12 11  1  0
 13 12  2  0
 13  8  1  0
M  END
